<?xml version="1.0" encoding="UTF-8"?>

<!-- generated on Monday 04 January 2021 12:19:21 PM IST by Eclipse SUMO GUI Version 1.8.0
-->

<configuration xmlns:xsi="http://www.w3.org/2001/XMLSchema-instance" xsi:noNamespaceSchemaLocation="http://sumo.dlr.de/xsd/sumoConfiguration.xsd">

    <input>
        <net-file value="/home/heisenberg/Desktop/ICPS_AutoNets/single_lane.net.xml"/>
        <route-files value="/home/heisenberg/Desktop/ICPS_AutoNets/r1.rou.xml"/>
    </input>

</configuration>
