<?xml version="1.0" encoding="UTF-8"?>

<!-- generated on Tuesday 19 January 2021 12:12:35 PM IST by Eclipse SUMO netedit Version 1.8.0
<configuration xmlns:xsi="http://www.w3.org/2001/XMLSchema-instance" xsi:noNamespaceSchemaLocation="http://sumo.dlr.de/xsd/netconvertConfiguration.xsd">

    <output>
        <output-file value="/home/heisenberg/Desktop/ICPS_AutoNets/Testbed/custom_scenarios/sumo_network/reverse_six.net.xml"/>
    </output>

    <processing>
        <offset.disable-normalization value="true"/>
    </processing>

    <junctions>
        <no-turnarounds value="true"/>
    </junctions>

    <report>
        <aggregate-warnings value="5"/>
    </report>

</configuration>
-->

<net version="1.6" junctionCornerDetail="5" limitTurnSpeed="5.50" xmlns:xsi="http://www.w3.org/2001/XMLSchema-instance" xsi:noNamespaceSchemaLocation="http://sumo.dlr.de/xsd/net_file.xsd">

    <location netOffset="0.00,0.00" convBoundary="20.00,60.00,150.00,160.00" origBoundary="10000000000.00,10000000000.00,-10000000000.00,-10000000000.00" projParameter="!"/>

    <edge id=":gneJ4_0" function="internal">
        <lane id=":gneJ4_0_0" index="0" speed="13.80" length="32.26" width="40.00" shape="150.00,40.00 158.75,41.25 165.00,45.00 168.75,51.25 170.00,60.00"/>
    </edge>
    <edge id=":gneJ5_0" function="internal">
        <lane id=":gneJ5_0_0" index="0" speed="13.80" length="32.26" width="40.00" shape="170.00,160.00 168.75,168.75 165.00,175.00 158.75,178.75 150.00,180.00"/>
    </edge>
    <edge id=":gneJ6_0" function="internal">
        <lane id=":gneJ6_0_0" index="0" speed="13.80" length="32.26" width="40.00" shape="60.00,180.00 51.25,178.75 45.00,175.00 41.25,168.75 40.00,160.00"/>
    </edge>
    <edge id=":gneJ7_0" function="internal">
        <lane id=":gneJ7_0_0" index="0" speed="13.80" length="32.26" width="40.00" shape="40.00,110.00 41.25,101.25 45.00,95.00 51.25,91.25 60.00,90.00"/>
    </edge>

    <edge id="gneE1" from="gneJ3" to="gneJ4" priority="-1">
        <lane id="gneE1_0" index="0" speed="13.89" length="130.00" width="40.00" shape="20.00,40.00 150.00,40.00"/>
    </edge>
    <edge id="gneE2" from="gneJ4" to="gneJ5" priority="-1">
        <lane id="gneE2_0" index="0" speed="13.89" length="100.00" width="40.00" shape="170.00,60.00 170.00,160.00"/>
    </edge>
    <edge id="gneE3" from="gneJ5" to="gneJ6" priority="-1">
        <lane id="gneE3_0" index="0" speed="13.89" length="90.00" width="40.00" shape="150.00,180.00 60.00,180.00"/>
    </edge>
    <edge id="gneE4" from="gneJ6" to="gneJ7" priority="-1">
        <lane id="gneE4_0" index="0" speed="13.89" length="50.00" width="40.00" shape="40.00,160.00 40.00,110.00"/>
    </edge>
    <edge id="gneE5" from="gneJ7" to="gneJ8" priority="-1">
        <lane id="gneE5_0" index="0" speed="13.89" length="50.00" width="40.00" shape="60.00,90.00 110.00,90.00"/>
    </edge>

    <junction id="gneJ3" type="dead_end" x="20.00" y="60.00" incLanes="" intLanes="" shape="20.00,60.00 20.00,20.00"/>
    <junction id="gneJ4" type="priority" x="150.00" y="60.00" incLanes="gneE1_0" intLanes=":gneJ4_0_0" shape="150.00,60.00 190.00,60.00 188.89,47.78 185.56,37.78 180.00,30.00 172.22,24.44 162.22,21.11 150.00,20.00">
        <request index="0" response="0" foes="0" cont="0"/>
    </junction>
    <junction id="gneJ5" type="priority" x="150.00" y="160.00" incLanes="gneE2_0" intLanes=":gneJ5_0_0" shape="190.00,160.00 150.00,160.00 150.00,200.00 162.22,198.89 172.22,195.56 180.00,190.00 185.56,182.22 188.89,172.22">
        <request index="0" response="0" foes="0" cont="0"/>
    </junction>
    <junction id="gneJ6" type="priority" x="60.00" y="160.00" incLanes="gneE3_0" intLanes=":gneJ6_0_0" shape="60.00,200.00 60.00,160.00 20.00,160.00 21.11,172.22 24.44,182.22 30.00,190.00 37.78,195.56 47.78,198.89">
        <request index="0" response="0" foes="0" cont="0"/>
    </junction>
    <junction id="gneJ7" type="priority" x="60.00" y="110.00" incLanes="gneE4_0" intLanes=":gneJ7_0_0" shape="20.00,110.00 60.00,110.00 60.00,70.00 47.78,71.11 37.78,74.44 30.00,80.00 24.44,87.78 21.11,97.78">
        <request index="0" response="0" foes="0" cont="0"/>
    </junction>
    <junction id="gneJ8" type="dead_end" x="110.00" y="110.00" incLanes="gneE5_0" intLanes="" shape="110.00,70.00 110.00,110.00"/>

    <connection from="gneE1" to="gneE2" fromLane="0" toLane="0" via=":gneJ4_0_0" dir="l" state="M"/>
    <connection from="gneE2" to="gneE3" fromLane="0" toLane="0" via=":gneJ5_0_0" dir="l" state="M"/>
    <connection from="gneE3" to="gneE4" fromLane="0" toLane="0" via=":gneJ6_0_0" dir="l" state="M"/>
    <connection from="gneE4" to="gneE5" fromLane="0" toLane="0" via=":gneJ7_0_0" dir="l" state="M"/>

    <connection from=":gneJ4_0" to="gneE2" fromLane="0" toLane="0" dir="l" state="M"/>
    <connection from=":gneJ5_0" to="gneE3" fromLane="0" toLane="0" dir="l" state="M"/>
    <connection from=":gneJ6_0" to="gneE4" fromLane="0" toLane="0" dir="l" state="M"/>
    <connection from=":gneJ7_0" to="gneE5" fromLane="0" toLane="0" dir="l" state="M"/>

</net>
