<?xml version="1.0" encoding="UTF-8"?>

<!-- generated on Monday 04 January 2021 04:06:39 PM IST by Eclipse SUMO netedit Version 1.8.0
<configuration xmlns:xsi="http://www.w3.org/2001/XMLSchema-instance" xsi:noNamespaceSchemaLocation="http://sumo.dlr.de/xsd/netconvertConfiguration.xsd">

    <input>
        <sumo-net-file value="/home/heisenberg/Desktop/ICPS_AutoNets/Testbed/custom_scenarios/sumo_network/straight_road.net.xml"/>
    </input>

    <output>
        <output-file value="/home/heisenberg/Desktop/ICPS_AutoNets/Testbed/custom_scenarios/sumo_network/straight_road.net.xml"/>
    </output>

    <processing>
        <geometry.min-radius.fix.railways value="false"/>
        <geometry.max-grade.fix value="false"/>
        <offset.disable-normalization value="true"/>
        <lefthand value="false"/>
    </processing>

    <junctions>
        <no-internal-links value="true"/>
        <no-turnarounds value="true"/>
        <junctions.corner-detail value="5"/>
        <junctions.limit-turn-speed value="5.5"/>
        <rectangular-lane-cut value="false"/>
    </junctions>

    <pedestrian>
        <walkingareas value="false"/>
    </pedestrian>

    <report>
        <aggregate-warnings value="5"/>
    </report>

</configuration>
-->

<net version="1.6" junctionCornerDetail="5" limitTurnSpeed="5.50" xmlns:xsi="http://www.w3.org/2001/XMLSchema-instance" xsi:noNamespaceSchemaLocation="http://sumo.dlr.de/xsd/net_file.xsd">

    <location netOffset="0.00,0.00" convBoundary="50.00,130.00,200.00,130.00" origBoundary="-10000000000.00,-10000000000.00,10000000000.00,10000000000.00" projParameter="!"/>

    <edge id="gneE3" from="0" to="gneJ6" priority="-1">
        <lane id="gneE3_0" index="0" speed="13.89" length="150.00" width="30.00" shape="50.00,115.00 200.00,115.00"/>
    </edge>

    <junction id="0" type="dead_end" x="50.00" y="130.00" incLanes="" intLanes="" shape="50.00,130.00 50.00,100.00"/>
    <junction id="gneJ6" type="dead_end" x="200.00" y="130.00" incLanes="gneE3_0" intLanes="" shape="200.00,100.00 200.00,130.00"/>

</net>
